Version 4
SHEET 1 880 680
WIRE 192 32 64 32
WIRE 64 64 64 32
WIRE 144 112 144 16
WIRE 64 128 64 64
WIRE 64 128 48 128
WIRE 112 128 64 128
WIRE 272 144 272 32
WIRE 272 144 176 144
WIRE 112 160 48 160
WIRE 144 224 144 176
WIRE -32 240 -32 128
WIRE 48 240 48 160
WIRE 48 240 -32 240
WIRE -32 256 -32 240
WIRE 144 352 144 304
FLAG 144 -64 0
FLAG 144 352 0
FLAG -112 160 V+
IOPIN -112 160 In
FLAG 64 64 V-
IOPIN 64 64 In
FLAG 272 144 Vout
IOPIN 272 144 Out
FLAG -32 256 0
SYMBOL OpAmps\\LM741 144 80 R0
SYMATTR InstName U1
SYMBOL voltage 144 32 R180
WINDOW 0 24 96 Left 2
WINDOW 3 24 16 Left 2
WINDOW 123 0 0 Left 0
WINDOW 39 0 0 Left 0
SYMATTR InstName V1
SYMATTR Value 15
SYMBOL voltage 144 320 R180
WINDOW 0 24 96 Left 2
WINDOW 3 24 16 Left 2
WINDOW 123 0 0 Left 0
WINDOW 39 0 0 Left 0
SYMATTR InstName V2
SYMATTR Value 15
SYMBOL res 64 112 R90
WINDOW 0 0 56 VBottom 2
WINDOW 3 32 56 VTop 2
SYMATTR InstName R1
SYMATTR Value 100
SYMBOL res 288 16 R90
WINDOW 0 0 56 VBottom 2
WINDOW 3 32 56 VTop 2
SYMATTR InstName R2
SYMATTR Value {Resistor}
TEXT -186 376 Left 2 !.tran 2
TEXT -568 72 Left 2 !.step param Resistor 100 1000 100
TEXT -480 -184 Left 4 ;Circuit par Charcha, Op Amp DC Offset Voltage demo
